MODEL 1
REMARK VINA RESULT:      -9.3      0.000      0.000
REMARK  4 active torsions:
REMARK  status: ('A' for Active; 'I' for Inactive)
REMARK    1  A    between atoms: C9_9  and  C10_10 
REMARK    2  A    between atoms: N2_15  and  C11_16 
REMARK    3  A    between atoms: C14_19  and  S1_20 
REMARK    4  A    between atoms: S1_20  and  N3_21 
ROOT
HETATM    1  C1  UNL     1      15.152   9.338   8.715  1.00  0.00     0.048 C 
HETATM    2  C2  UNL     1      15.837   8.316   9.576  1.00  0.00    -0.061 A 
HETATM    3  C3  UNL     1      15.909   7.002   9.129  1.00  0.00     0.007 A 
HETATM    4  C4  UNL     1      16.556   6.070   9.911  1.00  0.00     0.001 A 
HETATM    5  C5  UNL     1      17.113   6.476  11.103  1.00  0.00     0.014 A 
HETATM    6  C6  UNL     1      17.084   7.723  11.594  1.00  0.00    -0.007 A 
HETATM    7  C7  UNL     1      17.630   8.123  12.852  1.00  0.00     0.071 A 
HETATM    8  C8  UNL     1      18.372   9.344  12.896  1.00  0.00     0.070 A 
HETATM    9  C9  UNL     1      18.729   9.498  14.180  1.00  0.00     0.163 A 
HETATM   10  N1  UNL     1      18.251   8.483  14.838  1.00  0.00    -0.162 NA
HETATM   11  N2  UNL     1      17.558   7.610  14.048  1.00  0.00    -0.233 N 
HETATM   12  C17 UNL     1      16.410   8.660  10.777  1.00  0.00     0.020 A 
ENDROOT
BRANCH  11  13
HETATM   13  C11 UNL     1      16.915   6.530  14.672  1.00  0.00     0.059 A 
HETATM   14  C12 UNL     1      17.714   5.423  15.046  1.00  0.00     0.033 A 
HETATM   15  C13 UNL     1      17.238   4.322  15.703  1.00  0.00     0.027 A 
HETATM   16  C14 UNL     1      15.905   4.234  16.048  1.00  0.00     0.074 A 
HETATM   17  C15 UNL     1      15.083   5.301  15.699  1.00  0.00     0.027 A 
HETATM   18  C16 UNL     1      15.627   6.392  15.031  1.00  0.00     0.033 A 
BRANCH  16  19
HETATM   19  S1  UNL     1      15.277   2.812  16.833  1.00  0.00     0.239 S 
HETATM   20  O1  UNL     1      15.571   2.953  18.290  1.00  0.00    -0.206 OA
HETATM   21  O2  UNL     1      15.916   1.558  16.299  1.00  0.00    -0.206 OA
BRANCH  19  22
HETATM   22  N3  UNL     1      13.590   2.720  16.566  1.00  0.00    -0.225 NA
HETATM   23  H10 UNL     1      13.197   1.823  16.931  1.00  0.00     0.136 HD
HETATM   24  H11 UNL     1      13.117   3.519  17.082  1.00  0.00     0.136 HD
ENDBRANCH  19  22
ENDBRANCH  16  19
ENDBRANCH  11  13
BRANCH   9  25
HETATM   25  C10 UNL     1      19.533  10.638  14.769  1.00  0.00     0.436 C 
HETATM   26  F1  UNL     1      20.791  10.708  14.286  1.00  0.00    -0.165 F 
HETATM   27  F2  UNL     1      19.508  10.476  16.158  1.00  0.00    -0.165 F 
HETATM   28  F3  UNL     1      18.801  11.787  14.494  1.00  0.00    -0.165 F 
ENDBRANCH   9  25
TORSDOF 4
ENDMDL
MODEL 2
REMARK VINA RESULT:      -8.7      5.226      7.022
REMARK  4 active torsions:
REMARK  status: ('A' for Active; 'I' for Inactive)
REMARK    1  A    between atoms: C9_9  and  C10_10 
REMARK    2  A    between atoms: N2_15  and  C11_16 
REMARK    3  A    between atoms: C14_19  and  S1_20 
REMARK    4  A    between atoms: S1_20  and  N3_21 
ROOT
HETATM    1  C1  UNL     1      17.966   0.051  11.500  1.00  0.00     0.048 C 
HETATM    2  C2  UNL     1      17.500   1.471  11.636  1.00  0.00    -0.061 A 
HETATM    3  C3  UNL     1      17.353   2.243  10.489  1.00  0.00     0.007 A 
HETATM    4  C4  UNL     1      16.905   3.540  10.615  1.00  0.00     0.001 A 
HETATM    5  C5  UNL     1      16.612   4.023  11.871  1.00  0.00     0.014 A 
HETATM    6  C6  UNL     1      16.727   3.337  13.016  1.00  0.00    -0.007 A 
HETATM    7  C7  UNL     1      16.460   3.862  14.318  1.00  0.00     0.071 A 
HETATM    8  C8  UNL     1      15.726   3.039  15.228  1.00  0.00     0.070 A 
HETATM    9  C9  UNL     1      15.653   3.745  16.367  1.00  0.00     0.163 A 
HETATM   10  N1  UNL     1      16.277   4.868  16.166  1.00  0.00    -0.162 NA
HETATM   11  N2  UNL     1      16.796   4.975  14.907  1.00  0.00    -0.233 N 
HETATM   12  C17 UNL     1      17.194   2.011  12.863  1.00  0.00     0.020 A 
ENDROOT
BRANCH  11  13
HETATM   13  C11 UNL     1      17.576   6.105  14.613  1.00  0.00     0.059 A 
HETATM   14  C12 UNL     1      17.063   7.368  14.992  1.00  0.00     0.033 A 
HETATM   15  C13 UNL     1      17.729   8.549  14.816  1.00  0.00     0.027 A 
HETATM   16  C14 UNL     1      18.981   8.567  14.236  1.00  0.00     0.074 A 
HETATM   17  C15 UNL     1      19.523   7.347  13.847  1.00  0.00     0.027 A 
HETATM   18  C16 UNL     1      18.796   6.179  14.054  1.00  0.00     0.033 A 
BRANCH  16  19
HETATM   19  S1  UNL     1      19.813  10.071  13.954  1.00  0.00     0.239 S 
HETATM   20  O1  UNL     1      18.968  10.867  13.015  1.00  0.00    -0.206 OA
HETATM   21  O2  UNL     1      21.175   9.846  13.352  1.00  0.00    -0.206 OA
BRANCH  19  22
HETATM   22  N3  UNL     1      20.004  10.897  15.439  1.00  0.00    -0.225 NA
HETATM   23  H10 UNL     1      20.347  11.872  15.289  1.00  0.00     0.136 HD
HETATM   24  H11 UNL     1      19.060  10.953  15.924  1.00  0.00     0.136 HD
ENDBRANCH  19  22
ENDBRANCH  16  19
ENDBRANCH  11  13
BRANCH   9  25
HETATM   25  C10 UNL     1      14.977   3.324  17.654  1.00  0.00     0.436 C 
HETATM   26  F1  UNL     1      15.126   4.220  18.653  1.00  0.00    -0.165 F 
HETATM   27  F2  UNL     1      15.493   2.068  17.990  1.00  0.00    -0.165 F 
HETATM   28  F3  UNL     1      13.642   3.125  17.323  1.00  0.00    -0.165 F 
ENDBRANCH   9  25
TORSDOF 4
ENDMDL
